Circuit: * Z:\home\neiser\trbsoft\my\qdc\padiwa-amps\padiwa-amps.asc

WARNING: Node Q2:2:22 is floating.

Direct Newton iteration for .op point succeeded.
.step amplitude=0.2 risetime=1e-009 falltime=1e-009
.step amplitude=1 risetime=1e-009 falltime=1e-009
.step amplitude=1.8 risetime=1e-009 falltime=1e-009
.step amplitude=2.6 risetime=1e-009 falltime=1e-009
.step amplitude=3.4 risetime=1e-009 falltime=1e-009
.step amplitude=3.5 risetime=1e-009 falltime=1e-009
.step amplitude=0.2 risetime=4e-009 falltime=1e-009
.step amplitude=1 risetime=4e-009 falltime=1e-009
.step amplitude=1.8 risetime=4e-009 falltime=1e-009
.step amplitude=2.6 risetime=4e-009 falltime=1e-009
.step amplitude=3.4 risetime=4e-009 falltime=1e-009
.step amplitude=3.5 risetime=4e-009 falltime=1e-009
.step amplitude=0.2 risetime=8e-009 falltime=1e-009
.step amplitude=1 risetime=8e-009 falltime=1e-009
.step amplitude=1.8 risetime=8e-009 falltime=1e-009
.step amplitude=2.6 risetime=8e-009 falltime=1e-009
.step amplitude=3.4 risetime=8e-009 falltime=1e-009
.step amplitude=3.5 risetime=8e-009 falltime=1e-009
.step amplitude=0.2 risetime=1e-009 falltime=4e-009
.step amplitude=1 risetime=1e-009 falltime=4e-009
.step amplitude=1.8 risetime=1e-009 falltime=4e-009
.step amplitude=2.6 risetime=1e-009 falltime=4e-009
.step amplitude=3.4 risetime=1e-009 falltime=4e-009
.step amplitude=3.5 risetime=1e-009 falltime=4e-009
.step amplitude=0.2 risetime=4e-009 falltime=4e-009
.step amplitude=1 risetime=4e-009 falltime=4e-009
.step amplitude=1.8 risetime=4e-009 falltime=4e-009
.step amplitude=2.6 risetime=4e-009 falltime=4e-009
.step amplitude=3.4 risetime=4e-009 falltime=4e-009
.step amplitude=3.5 risetime=4e-009 falltime=4e-009
.step amplitude=0.2 risetime=8e-009 falltime=4e-009
.step amplitude=1 risetime=8e-009 falltime=4e-009
.step amplitude=1.8 risetime=8e-009 falltime=4e-009
.step amplitude=2.6 risetime=8e-009 falltime=4e-009
.step amplitude=3.4 risetime=8e-009 falltime=4e-009
.step amplitude=3.5 risetime=8e-009 falltime=4e-009
.step amplitude=0.2 risetime=1e-009 falltime=8e-009
.step amplitude=1 risetime=1e-009 falltime=8e-009
.step amplitude=1.8 risetime=1e-009 falltime=8e-009
.step amplitude=2.6 risetime=1e-009 falltime=8e-009
.step amplitude=3.4 risetime=1e-009 falltime=8e-009
.step amplitude=3.5 risetime=1e-009 falltime=8e-009
.step amplitude=0.2 risetime=4e-009 falltime=8e-009
.step amplitude=1 risetime=4e-009 falltime=8e-009
.step amplitude=1.8 risetime=4e-009 falltime=8e-009
.step amplitude=2.6 risetime=4e-009 falltime=8e-009
.step amplitude=3.4 risetime=4e-009 falltime=8e-009
.step amplitude=3.5 risetime=4e-009 falltime=8e-009
.step amplitude=0.2 risetime=8e-009 falltime=8e-009
.step amplitude=1 risetime=8e-009 falltime=8e-009
.step amplitude=1.8 risetime=8e-009 falltime=8e-009
.step amplitude=2.6 risetime=8e-009 falltime=8e-009
.step amplitude=3.4 risetime=8e-009 falltime=8e-009
.step amplitude=3.5 risetime=8e-009 falltime=8e-009


Measurement: tot_slow
  step	tot_slow	FROM	TO
     1	0	0	0
     2	2.63476e-008	8.0861e-009	3.44337e-008
     3	3.21331e-008	6.78313e-009	3.89162e-008
     4	3.66606e-008	6.38838e-009	4.3049e-008
     5	4.09159e-008	6.17589e-009	4.70918e-008
     6	4.14331e-008	6.15605e-009	4.75892e-008
     7	0	0	0
     8	3.43031e-008	8.82891e-009	4.3132e-008
     9	4.51935e-008	7.96881e-009	5.31623e-008
    10	5.56834e-008	7.52307e-009	6.32065e-008
    11	6.5942e-008	7.23664e-009	7.31786e-008
    12	6.72102e-008	7.20757e-009	7.44177e-008
    13	2.12806e-008	1.53044e-008	3.6585e-008
    14	4.36737e-008	1.01475e-008	5.38212e-008
    15	6.27317e-008	9.00473e-009	7.17364e-008
    16	8.10828e-008	8.41902e-009	8.95019e-008
    17	9.89568e-008	8.04297e-009	1.07e-007
    18	1.01161e-007	8.00496e-009	1.09166e-007
    19	0	0	0
    20	3.52972e-008	7.39287e-009	4.26901e-008
    21	4.61751e-008	6.6756e-009	5.28507e-008
    22	5.65746e-008	6.35407e-009	6.29286e-008
    23	6.67136e-008	6.16432e-009	7.28779e-008
    24	6.796e-008	6.14619e-009	7.41062e-008
    25	2.09698e-008	1.37135e-008	3.46833e-008
    26	4.20266e-008	8.82891e-009	5.08555e-008
    27	5.88959e-008	7.96881e-009	6.68647e-008
    28	7.52312e-008	7.52307e-009	8.27543e-008
    29	9.11803e-008	7.23664e-009	9.84169e-008
    30	9.31486e-008	7.20757e-009	1.00356e-007
    31	2.32333e-008	1.52768e-008	3.85101e-008
    32	5.13337e-008	1.01475e-008	6.14811e-008
    33	7.62492e-008	9.00473e-009	8.5254e-008
    34	1.00211e-007	8.41902e-009	1.0863e-007
    35	1.23451e-007	8.04297e-009	1.31494e-007
    36	1.26308e-007	8.00496e-009	1.34313e-007
    37	2.20175e-008	1.22879e-008	3.43053e-008
    38	4.56221e-008	7.3423e-009	5.29644e-008
    39	6.44061e-008	6.66249e-009	7.10686e-008
    40	8.25399e-008	6.34927e-009	8.88891e-008
    41	1.00192e-007	6.16279e-009	1.06354e-007
    42	1.02361e-007	6.14489e-009	1.08506e-007
    43	2.41245e-008	1.32323e-008	3.73568e-008
    44	5.22356e-008	8.82891e-009	6.10645e-008
    45	7.69283e-008	7.96881e-009	8.48972e-008
    46	1.00774e-007	7.52307e-009	1.08297e-007
    47	1.2392e-007	7.23664e-009	1.31157e-007
    48	1.26766e-007	7.20757e-009	1.33974e-007
    49	2.5519e-008	1.52726e-008	4.07916e-008
    50	6.14849e-008	1.01475e-008	7.16323e-008
    51	9.40377e-008	9.00473e-009	1.03042e-007
    52	1.25201e-007	8.41902e-009	1.3362e-007
    53	1.55212e-007	8.04297e-009	1.63255e-007
    54	1.58886e-007	8.00496e-009	1.66891e-007

Measurement: inputcharge
  step	INTEG(i(i1))	FROM	TO
     1	5e-012	0	3.075e-008
     2	2.5e-011	0	5.375e-008
     3	4.5e-011	0	7.675e-008
     4	6.5e-011	0	9.975e-008
     5	8.49997e-011	0	1.2275e-007
     6	8.74998e-011	0	1.25625e-007
     7	1.25e-011	0	4.575e-008
     8	6.25e-011	0	6.875e-008
     9	1.125e-010	0	9.175e-008
    10	1.625e-010	0	1.1475e-007
    11	2.125e-010	0	1.3775e-007
    12	2.1875e-010	0	1.40625e-007
    13	2.24999e-011	0	6.575e-008
    14	1.125e-010	0	8.875e-008
    15	2.025e-010	0	1.1175e-007
    16	2.925e-010	0	1.3475e-007
    17	3.825e-010	0	1.5775e-007
    18	3.9375e-010	0	1.60625e-007
    19	1.25e-011	0	4.575e-008
    20	6.24999e-011	0	6.875e-008
    21	1.125e-010	0	9.175e-008
    22	1.625e-010	0	1.1475e-007
    23	2.125e-010	0	1.3775e-007
    24	2.1875e-010	0	1.40625e-007
    25	2e-011	0	6.075e-008
    26	1e-010	0	8.375e-008
    27	1.8e-010	0	1.0675e-007
    28	2.6e-010	0	1.2975e-007
    29	3.4e-010	0	1.5275e-007
    30	3.5e-010	0	1.55625e-007
    31	2.99998e-011	0	8.075e-008
    32	1.5e-010	0	1.0375e-007
    33	2.7e-010	0	1.2675e-007
    34	3.9e-010	0	1.4975e-007
    35	5.1e-010	0	1.7275e-007
    36	5.25e-010	0	1.75625e-007
    37	2.25e-011	0	6.575e-008
    38	1.125e-010	0	8.875e-008
    39	2.025e-010	0	1.1175e-007
    40	2.925e-010	0	1.3475e-007
    41	3.825e-010	0	1.5775e-007
    42	3.9375e-010	0	1.60625e-007
    43	3e-011	0	8.075e-008
    44	1.5e-010	0	1.0375e-007
    45	2.7e-010	0	1.2675e-007
    46	3.9e-010	0	1.4975e-007
    47	5.1e-010	0	1.7275e-007
    48	5.25e-010	0	1.75625e-007
    49	3.99999e-011	0	1.0075e-007
    50	2e-010	0	1.2375e-007
    51	3.59999e-010	0	1.4675e-007
    52	5.2e-010	0	1.6975e-007
    53	6.8e-010	0	1.9275e-007
    54	7e-010	0	1.95625e-007

Measurement: tot_fast
  step	tot_fast	FROM	TO
     1	3.37721e-009	5.10434e-009	8.48155e-009
     2	6.13187e-009	4.68872e-009	1.08206e-008
     3	7.03413e-009	4.61534e-009	1.16495e-008
     4	7.61345e-009	4.57946e-009	1.21929e-008
     5	8.02158e-009	4.55719e-009	1.25788e-008
     6	8.07973e-009	4.55484e-009	1.26346e-008
     7	6.7605e-009	5.98256e-009	1.27431e-008
     8	1.008e-008	5.01365e-009	1.50937e-008
     9	1.10944e-008	4.83744e-009	1.59318e-008
    10	1.17105e-008	4.75991e-009	1.64704e-008
    11	1.21025e-008	4.71345e-009	1.68159e-008
    12	1.21528e-008	4.70886e-009	1.68617e-008
    13	1.10593e-008	6.83123e-009	1.78905e-008
    14	1.49046e-008	5.32621e-009	2.02308e-008
    15	1.59986e-008	5.05497e-009	2.10536e-008
    16	1.66643e-008	4.92505e-009	2.15893e-008
    17	1.71031e-008	4.85149e-009	2.19546e-008
    18	1.71555e-008	4.84438e-009	2.19998e-008
    19	6.5503e-009	5.10434e-009	1.16546e-008
    20	9.30828e-009	4.68872e-009	1.3997e-008
    21	1.02157e-008	4.61534e-009	1.48311e-008
    22	1.07891e-008	4.57946e-009	1.53686e-008
    23	1.11924e-008	4.55719e-009	1.57496e-008
    24	1.124e-008	4.55484e-009	1.57948e-008
    25	9.49342e-009	5.98256e-009	1.5476e-008
    26	1.27932e-008	5.01365e-009	1.78068e-008
    27	1.38054e-008	4.83744e-009	1.86429e-008
    28	1.44118e-008	4.75991e-009	1.91717e-008
    29	1.48454e-008	4.71345e-009	1.95589e-008
    30	1.48935e-008	4.70886e-009	1.96024e-008
    31	1.36679e-008	6.83123e-009	2.04992e-008
    32	1.74967e-008	5.32621e-009	2.2823e-008
    33	1.8601e-008	5.05497e-009	2.3656e-008
    34	1.92538e-008	4.92505e-009	2.41789e-008
    35	1.97107e-008	4.85149e-009	2.45622e-008
    36	1.97604e-008	4.84438e-009	2.46048e-008
    37	1.06941e-008	5.10434e-009	1.57984e-008
    38	1.34505e-008	4.68872e-009	1.81393e-008
    39	1.43669e-008	4.61534e-009	1.89823e-008
    40	1.49288e-008	4.57942e-009	1.95082e-008
    41	1.5317e-008	4.55719e-009	1.98742e-008
    42	1.53612e-008	4.55484e-009	1.9916e-008
    43	1.3569e-008	5.98256e-009	1.95516e-008
    44	1.68752e-008	5.01365e-009	2.18888e-008
    45	1.78909e-008	4.83744e-009	2.27283e-008
    46	1.84905e-008	4.75991e-009	2.32504e-008
    47	1.88995e-008	4.71345e-009	2.3613e-008
    48	1.89445e-008	4.70886e-009	2.36534e-008
    49	1.77206e-008	6.83123e-009	2.45518e-008
    50	2.15576e-008	5.32621e-009	2.68838e-008
    51	2.26643e-008	5.05497e-009	2.77193e-008
    52	2.33104e-008	4.92505e-009	2.82355e-008
    53	2.3743e-008	4.85149e-009	2.85945e-008
    54	2.37894e-008	4.84438e-009	2.86337e-008


Date: Wed Feb 26 16:53:02 2014
Total elapsed time: 236.337 seconds.

tnom = 27
temp = 27
method = modified trap
totiter = 195734
traniter = 195718
tranpoints = 97858
accept = 97851
rejected = 7
matrix size = 59
fillins = 51
solver = Normal
Thread vector: 10.8/9.8[2] 6.3/4.3[2] 1.6/1.4[2] 0.7/1.2[1]  2592/500
Matrix Compiler1: 6.72 KB object code size  3.7/2.4/[0.9]
Matrix Compiler2: 5.59 KB object code size  1.2/2.1/[1.0]


